Version 4
SHEET 1 880 680
WIRE 128 144 64 144
WIRE 288 144 256 144
WIRE 304 144 288 144
WIRE 64 176 64 144
WIRE 64 288 64 256
FLAG 64 288 0
FLAG 288 144 out
SYMBOL vco 192 96 R0
SYMATTR InstName U1
SYMBOL voltage 64 160 R0
WINDOW 123 0 0 Left 0
WINDOW 39 0 0 Left 0
SYMATTR InstName V1
SYMATTR Value PULSE(0 10 0 5 5)
TEXT 30 312 Left 2 !.tran 5
TEXT 136 200 Left 2 !.inc vco.sub
TEXT 0 32 Left 2 ;Works up to 30 kHz, then halts.\ntrtol must be < 4 for reliable operation.
