Version 4
SHEET 1 988 820
WIRE -2112 -96 -2112 -112
WIRE -1552 -16 -1632 -16
WIRE -1296 -16 -1552 -16
WIRE -512 -16 -512 -32
WIRE -2112 0 -2112 -16
WIRE -2112 0 -2160 0
WIRE -720 0 -736 0
WIRE -544 0 -720 0
WIRE -2160 16 -2160 0
WIRE -2112 16 -2112 0
WIRE -1072 16 -1152 16
WIRE -720 16 -720 0
WIRE -720 16 -1072 16
WIRE -432 16 -480 16
WIRE -1632 32 -1632 -16
WIRE -544 32 -592 32
WIRE -1488 48 -1536 48
WIRE -1296 48 -1488 48
WIRE -512 64 -512 48
WIRE -2112 112 -2112 96
WIRE -1536 112 -1536 48
WIRE -1296 112 -1296 80
WIRE -1632 128 -1632 112
WIRE -592 128 -592 32
WIRE -736 176 -736 128
WIRE -1536 240 -1536 192
WIRE -736 272 -736 256
WIRE -1712 352 -1712 288
WIRE -1616 352 -1616 288
WIRE -1712 448 -1712 432
WIRE -1616 448 -1616 432
FLAG -1712 448 0
FLAG -1632 128 0
FLAG -1296 112 0
FLAG -1552 -16 VCO_CV
FLAG -1488 48 VCA_CV
FLAG -1072 16 sin
FLAG -2160 16 0
FLAG -512 64 ee
FLAG -2112 112 ee
FLAG -2112 -112 cc
FLAG -512 -32 cc
FLAG -736 272 0
FLAG -432 16 pwm
FLAG -592 128 0
FLAG -1712 288 env1
FLAG -1616 448 0
FLAG -1616 288 env2
FLAG -1536 240 0
SYMBOL voltage -1712 336 M0
WINDOW 123 24 124 Left 2
WINDOW 39 0 0 Left 2
SYMATTR InstName Vin
SYMATTR Value PULSE(0 1 0 1u 1u 10m 0.125)
SYMBOL voltage -1632 16 M0
WINDOW 123 24 124 Left 2
WINDOW 39 0 0 Left 2
SYMATTR Value2 AC 1
SYMATTR InstName Vfm
SYMATTR Value PULSE(0 0.3 0 10m 1u 1u 0.125)
SYMBOL SPECIALFUNCTIONS\\MODULATE -1296 -16 R0
WINDOW 0 37 -55 Left 2
WINDOW 3 159 135 Center 2
SYMATTR InstName A2
SYMATTR Value mark=20k space= 20
SYMBOL voltage -736 160 R0
WINDOW 123 0 0 Left 0
WINDOW 39 0 0 Left 0
SYMATTR InstName V2
SYMATTR Value PULSE(-1 1 0 2.5 2.5 1u 5.01)
SYMBOL OpAmps\\AD712 -512 -48 R0
SYMATTR InstName U1
SYMBOL voltage -2112 -112 R0
SYMATTR InstName V3
SYMATTR Value 15
SYMBOL voltage -2112 0 R0
SYMATTR InstName V4
SYMATTR Value 15
SYMBOL voltage -1616 336 M0
WINDOW 123 24 124 Left 2
WINDOW 39 0 0 Left 2
WINDOW 3 -400 108 Left 2
SYMATTR Value PULSE(0 1 0 1u 1u 0.375 0.5)
SYMATTR InstName Vin1
SYMBOL bv -1536 96 R0
SYMATTR InstName B1
SYMATTR Value V=V(env1) * V(env2)
TEXT -1272 -104 Left 2 ;Simple lin VCO + VCA
TEXT -1816 -168 Left 2 !.tran 10
TEXT -1264 160 Left 2 ;Sets scale for FM input:\nspace <-> 0V -> 20 Hz\nmark <-> 1V -> 20 kHz
